Version 4
SHEET 1 880 680
WIRE -144 160 -240 160
WIRE 64 160 -64 160
WIRE 144 160 64 160
WIRE 208 160 144 160
WIRE -240 192 -240 160
WIRE 64 192 64 160
WIRE 144 192 144 160
WIRE 208 192 208 160
WIRE -240 288 -240 272
WIRE 64 288 64 256
WIRE 64 288 -240 288
WIRE 144 288 144 256
WIRE 144 288 64 288
WIRE 208 288 208 256
WIRE 208 288 144 288
WIRE -240 368 -240 288
FLAG -240 368 0
SYMBOL res -48 144 R90
WINDOW 0 0 56 VBottom 2
WINDOW 3 32 56 VTop 2
SYMATTR InstName R2
SYMATTR Value 680R
SYMBOL voltage -240 176 R0
WINDOW 0 -45 7 Left 2
WINDOW 3 -379 107 Left 2
WINDOW 123 -93 71 Left 2
WINDOW 39 0 0 Left 2
SYMATTR InstName V2
SYMATTR Value PULSE(0 5 0 1p 1p .5m 1m)
SYMATTR Value2 AC 1
SYMBOL polcap 48 192 R0
WINDOW 3 24 56 Left 2
SYMATTR InstName C1
SYMATTR Value 4.7µ
SYMATTR Description Capacitor
SYMATTR Type cap
SYMATTR SpiceLine V=50 Irms=25m Rser=6.7 Lser=0
SYMBOL polcap 128 192 R0
WINDOW 3 24 56 Left 2
SYMATTR InstName C2
SYMATTR Value 22µ
SYMATTR Description Capacitor
SYMATTR Type cap
SYMATTR SpiceLine V=16 Irms=35m Rser=2.8 Lser=0
SYMBOL polcap 192 192 R0
WINDOW 3 24 56 Left 2
SYMATTR InstName C3
SYMATTR Value 33µf
SYMATTR Description Capacitor
SYMATTR Type cap
SYMATTR SpiceLine V=16 Irms=35m Rser=2.8 Lser=0
TEXT -240 88 Left 2 !.tran 0 200m 190m
