Version 4
SHEET 1 880 680
WIRE -80 -128 -192 -128
WIRE -192 -96 -192 -128
WIRE -192 16 -192 -16
WIRE -80 192 -80 -128
WIRE -432 224 -544 224
WIRE -96 224 -432 224
WIRE -544 256 -544 224
WIRE 96 272 32 272
WIRE 256 272 160 272
WIRE 304 272 256 272
WIRE 496 272 368 272
WIRE 672 272 496 272
WIRE 256 288 256 272
WIRE 496 304 496 272
WIRE -96 320 -160 320
WIRE 672 320 672 272
WIRE -544 352 -544 320
WIRE -160 352 -160 320
WIRE 256 384 256 352
WIRE 496 384 496 368
WIRE -80 416 -80 352
WIRE 672 432 672 400
WIRE -544 464 -544 432
FLAG -192 16 0
FLAG -432 224 Vop
FLAG -80 416 0
FLAG 672 432 0
FLAG -544 464 0
FLAG -160 352 0
FLAG 496 384 0
FLAG 256 384 0
FLAG 496 272 Vout
SYMBOL LM386 -32 272 R0
WINDOW 3 -49 -13 Left 2
WINDOW 0 -38 24 Left 2
SYMATTR InstName U1
SYMBOL voltage -192 -112 R0
WINDOW 123 0 0 Left 2
WINDOW 39 0 0 Left 2
SYMATTR InstName V1
SYMATTR Value 12
SYMBOL polcap 160 256 R90
WINDOW 0 0 32 VBottom 2
WINDOW 3 32 32 VTop 2
SYMATTR InstName C10
SYMATTR Value 470µ
SYMATTR Description Capacitor
SYMATTR Type cap
SYMATTR SpiceLine V=16 Irms=70m Rser=2.3 Lser=0
SYMBOL res 656 304 R0
SYMATTR InstName R8
SYMATTR Value 250
SYMBOL voltage -544 336 R0
WINDOW 3 -384 99 Left 2
WINDOW 123 -96 65 Left 2
WINDOW 39 0 0 Left 2
WINDOW 0 -78 33 Left 2
SYMATTR Value PULSE(0 2 0 1p 1p 16u 32u)
SYMATTR Value2 AC 1
SYMATTR InstName V2
SYMBOL polcap -528 320 R180
WINDOW 0 24 56 Left 2
WINDOW 3 24 8 Left 2
SYMATTR InstName C11
SYMATTR Value 470µ
SYMATTR Description Capacitor
SYMATTR Type cap
SYMATTR SpiceLine V=16 Irms=900m Rser=0.1 Lser=0 mfg="Nichicon" pn="UPH1C471MRH" type="Al electrolytic"
SYMBOL polcap 480 304 R0
WINDOW 3 24 56 Left 2
SYMATTR InstName C1
SYMATTR Value 47µ
SYMATTR Description Capacitor
SYMATTR Type cap
SYMATTR SpiceLine V=16 Irms=186m Rser=0.893291 Lser=4.92432n mfg="Würth Elektronik" pn="860160372007 WCAP-ATLL 5x11" type="Al electrolytic"
SYMBOL schottky 272 352 R180
WINDOW 0 24 64 Left 2
WINDOW 3 24 0 Left 2
SYMATTR InstName D2
SYMATTR Value 1N5817
SYMATTR Description Diode
SYMATTR Type diode
SYMBOL schottky 304 288 R270
WINDOW 0 32 32 VTop 2
WINDOW 3 0 32 VBottom 2
SYMATTR InstName D1
SYMATTR Value 1N5817
SYMATTR Description Diode
SYMATTR Type diode
TEXT -168 128 Left 2 ;7 BP\n1 G1\n8 G8
TEXT -792 48 Left 2 ;.ac dec 100 1 100Meg
TEXT -792 96 Left 2 !.inc LM386.sub
TEXT -784 0 Left 2 !.tran 0 20m 19m
TEXT 120 0 Left 2 ;Convergence is too slow.  Is sufficient current output
TEXT 128 40 Left 2 ;Sweep duty cycle.  RMS voltage does not change as expected
