Version 4
SHEET 1 1576 804
WIRE 96 0 -80 0
WIRE -80 32 -80 0
WIRE 96 80 96 0
WIRE -80 128 -80 112
WIRE 96 144 96 80
WIRE 176 192 160 192
WIRE 256 192 176 192
WIRE 560 192 336 192
WIRE 752 192 560 192
WIRE 752 240 752 192
WIRE 96 288 96 240
WIRE 592 288 544 288
WIRE 688 288 672 288
WIRE 96 304 96 288
WIRE 544 320 544 288
WIRE 752 368 752 336
WIRE 96 416 96 384
WIRE 96 416 -96 416
WIRE 544 416 544 400
WIRE -96 448 -96 416
WIRE -256 496 -304 496
WIRE -160 496 -176 496
WIRE -304 528 -304 496
WIRE -96 576 -96 544
WIRE -304 624 -304 608
FLAG -80 128 0
FLAG 96 80 Ve
FLAG 96 288 Vc
FLAG 176 192 Vb
FLAG -96 576 0
FLAG -304 624 0
FLAG 752 368 0
FLAG 544 416 0
FLAG 560 192 Vcontrol
SYMBOL pnp 160 240 R180
SYMATTR InstName Q2
SYMATTR Value 2N3906
SYMBOL res 352 176 R90
WINDOW 0 0 56 VBottom 2
WINDOW 3 32 56 VTop 2
SYMATTR InstName Rb
SYMATTR Value 1K
SYMBOL res 80 288 R0
SYMATTR InstName Rc
SYMATTR Value 1
SYMBOL npn -160 448 R0
SYMATTR InstName Q1
SYMATTR Value 2N3053
SYMBOL res -160 480 R90
WINDOW 0 0 56 VBottom 2
WINDOW 3 32 56 VTop 2
SYMATTR InstName Rc2
SYMATTR Value 15K
SYMBOL voltage -80 16 R0
WINDOW 123 0 0 Left 2
WINDOW 39 0 0 Left 2
WINDOW 3 23 89 Left 2
SYMATTR Value 12
SYMATTR InstName V1
SYMBOL npn 688 240 R0
SYMATTR InstName Q3
SYMATTR Value 2N3904
SYMBOL res 688 272 R90
WINDOW 0 0 56 VBottom 2
WINDOW 3 32 56 VTop 2
SYMATTR InstName Rc1
SYMATTR Value 15K
SYMBOL voltage -304 512 R0
WINDOW 123 0 0 Left 2
WINDOW 39 0 0 Left 2
SYMATTR InstName Vcc
SYMATTR Value 0
SYMBOL voltage 544 304 R0
WINDOW 123 0 0 Left 2
WINDOW 39 0 0 Left 2
SYMATTR InstName Vb
SYMATTR Value 0
TEXT -240 240 Left 2 !;tran 8m
TEXT 552 464 Left 2 ;Max ssems to be 1.4V\nRamp voltage and check current and Vce
TEXT -568 672 Left 2 ;Max seems to be 8V\nRamp voltage and check current and Vce
TEXT 440 80 Left 2 ;Will control transistors be fixed or dynamic control voltages
TEXT 48 560 Left 2 !.dc Vcc 12 0 .25 Vb .5 .70 .005
